/*--------------------------------*- C++ -*----------------------------------*\
| =========                 |                                                 |
| \\      /  F ield         | OpenFOAM: The Open Source CFD Toolbox           |
|  \\    /   O peration     | Version:  plus                                  |
|   \\  /    A nd           | Web:      www.OpenFOAM.com                      |
|    \\/     M anipulation  |                                                 |
\*---------------------------------------------------------------------------*/
FoamFile
{
    version     2.0;
    format      ascii;
    class       dictionary;
    object      blockMeshDict;
}
// * * * * * * * * * * * * * * * * * * * * * * * * * * * * * * * * * * * * * //

convertToMeters 1;

vertices
(
    (-1 -1 0)
    (-1 1 0)
    (1 1 0)
    (1 -1 0)
    (-1 -1 0.1)
    (-1 1 0.1)
    (1 1 0.1)
    (1 -1 0.1)
);

blocks
(
    hex (0 3 2 1 4 7 6 5) (50 50 1) simpleGrading (1 1 1)
);

edges
(
);

boundary
(
    top
    {
        type patch;
        faces
        (
            (1 5 6 2)
        );
    }

    left
    {
        type patch;
        faces
        (
            (0 4 5 1)
        );
    }

    down
    {
        type patch;
        faces
        (
            (0 4 7 3)
        );
    }

    right
    {
        type patch;
        faces
        (
            (3 2 6 7)
        );
    }

    frontAndBack
    {
        type empty;
        faces
        (
            (0 1 2 3)
            (4 7 6 5)
        );
    }
);

mergePatchPairs
(
);

// ************************************************************************* //
